4af3_A_rec_4af3_vx6_lig_tt_docked
     RDKit          3D

 33 37  0  0  0  0  0  0  0  0999 V2000
   25.9630  -20.2110  -12.9650 C   0  0  0  0  0  0  0  0  0  0  0  0
   25.3210  -20.4790  -14.1760 C   0  0  0  0  0  0  0  0  0  0  0  0
   24.5110  -21.6130  -14.2670 C   0  0  0  0  0  0  0  0  0  0  0  0
   24.3790  -22.4140  -13.1850 N   0  0  0  0  0  4  0  0  0  0  0  0
   25.0160  -22.1420  -12.0340 C   0  0  0  0  0  0  0  0  0  0  0  0
   25.7900  -21.0590  -11.9410 N   0  0  0  0  0  0  0  0  0  0  0  0
   28.8780  -17.2300  -12.3700 N   0  0  0  0  0  0  0  0  0  0  0  0
   27.6720  -17.2940  -11.4900 C   0  0  0  0  0  0  0  0  0  0  0  0
   27.2110  -18.7200  -11.3880 C   0  0  0  0  0  0  0  0  0  0  0  0
   26.7860  -19.1670  -12.7370 N   0  0  0  0  0  0  0  0  0  0  0  0
   27.3110  -18.4120  -13.9010 C   0  0  0  0  0  0  0  0  0  0  0  0
   28.7230  -18.0150  -13.6220 C   0  0  0  0  0  0  0  0  0  0  0  0
   30.1400  -17.6160  -11.6790 C   0  0  0  0  0  0  0  0  0  0  0  0
   23.8800  -21.8470  -15.4390 N   0  0  0  0  0  0  0  0  0  0  0  0
   24.5200  -22.0910  -16.6090 C   0  0  0  0  0  0  0  0  0  0  0  0
   24.7850  -21.3230  -17.6740 C   0  0  0  0  0  0  0  0  0  0  0  0
   25.4550  -22.1200  -18.5010 C   0  0  0  0  0  0  0  0  0  0  0  0
   25.5810  -23.3110  -17.9470 N   0  0  0  0  0  0  0  0  0  0  0  0
   25.0340  -23.2920  -16.8490 N   0  0  0  0  0  0  0  0  0  0  0  0
   26.0230  -21.7920  -19.8890 C   0  0  0  0  0  0  0  0  0  0  0  0
   24.8760  -23.1640  -10.5910 S   0  0  0  0  0  0  0  0  0  0  0  0
   23.2350  -22.9140  -10.1530 C   0  0  0  0  0  0  0  0  0  0  0  0
   22.5420  -21.8470  -10.6960 C   0  0  0  0  0  0  0  0  0  0  0  0
   21.2190  -21.6330  -10.3430 C   0  0  0  0  0  0  0  0  0  0  0  0
   20.5680  -22.4780   -9.4460 C   0  0  0  0  0  0  0  0  0  0  0  0
   21.2840  -23.5600   -8.9040 C   0  0  0  0  0  0  0  0  0  0  0  0
   22.6100  -23.7670   -9.2580 C   0  0  0  0  0  0  0  0  0  0  0  0
   19.2800  -22.1810   -9.1780 N   0  0  0  0  0  0  0  0  0  0  0  0
   18.2910  -22.6120   -9.9810 C   0  0  0  0  0  0  0  0  0  0  0  0
   18.4340  -23.3010  -10.9870 O   0  0  0  0  0  0  0  0  0  0  0  0
   16.8920  -22.1690   -9.5650 C   0  0  0  0  0  0  0  0  0  0  0  0
   15.8630  -23.2690   -9.2640 C   0  0  0  0  0  0  0  0  0  0  0  0
   16.4770  -22.4770   -8.1310 C   0  0  0  0  0  0  0  0  0  0  0  0
  1 10  1  0
  1  2  1  0
  1  6  2  0
  2  3  1  0
  3 14  1  0
  3  4  2  0
  4  5  2  0
  5  6  1  0
  5 21  1  0
  7  8  1  0
  7 13  1  0
  7 12  1  0
  8  9  1  0
  9 10  1  0
 10 11  1  0
 11 12  1  0
 14 15  1  0
 15 19  2  0
 15 16  1  0
 16 17  1  0
 17 18  2  0
 17 20  1  0
 18 19  1  0
 21 22  1  0
 22 27  2  0
 22 23  1  0
 23 24  2  0
 24 25  1  0
 25 26  2  0
 25 28  1  0
 26 27  1  0
 28 29  1  0
 29 30  2  0
 29 31  1  0
 31 32  1  0
 31 33  1  0
 32 33  1  0
M  END
>  <MODEL>  (1) 
       7

>  <COMPND>  (1) 
    UNNAMED

>  <AUTHOR>  (1) 
    GENERATED BY OPEN BABEL 2.4.90

>  <MASTER>  (1) 
        0    0    0    0    0    0    0    0   33    0   33    0

$$$$
