4af3_A_rec_4af3_vx6_lig_tt_docked
     RDKit          3D

 33 37  0  0  0  0  0  0  0  0999 V2000
   26.8140  -20.9910  -12.8980 C   0  0  0  0  0  0  0  0  0  0  0  0
   27.1930  -22.2470  -12.4170 C   0  0  0  0  0  0  0  0  0  0  0  0
   26.2340  -23.2600  -12.3660 C   0  0  0  0  0  0  0  0  0  0  0  0
   24.9730  -22.9930  -12.7770 N   0  0  0  0  0  4  0  0  0  0  0  0
   24.6300  -21.7730  -13.2250 C   0  0  0  0  0  0  0  0  0  0  0  0
   25.5430  -20.8020  -13.2770 N   0  0  0  0  0  0  0  0  0  0  0  0
   29.3470  -17.6300  -12.7190 N   0  0  0  0  0  0  0  0  0  0  0  0
   28.3360  -17.7570  -13.8120 C   0  0  0  0  0  0  0  0  0  0  0  0
   27.1610  -18.5460  -13.3080 C   0  0  0  0  0  0  0  0  0  0  0  0
   27.6260  -19.9170  -12.9880 N   0  0  0  0  0  0  0  0  0  0  0  0
   29.0780  -20.1050  -12.7470 C   0  0  0  0  0  0  0  0  0  0  0  0
   29.6040  -18.9150  -12.0170 C   0  0  0  0  0  0  0  0  0  0  0  0
   29.0230  -16.5640  -11.7310 C   0  0  0  0  0  0  0  0  0  0  0  0
   26.6210  -24.4750  -11.9180 N   0  0  0  0  0  0  0  0  0  0  0  0
   27.2930  -24.6770  -10.7570 C   0  0  0  0  0  0  0  0  0  0  0  0
   26.9090  -24.6620   -9.4740 C   0  0  0  0  0  0  0  0  0  0  0  0
   28.0150  -24.9470   -8.7930 C   0  0  0  0  0  0  0  0  0  0  0  0
   29.0120  -25.1220   -9.6390 N   0  0  0  0  0  0  0  0  0  0  0  0
   28.5900  -24.9620  -10.7800 N   0  0  0  0  0  0  0  0  0  0  0  0
   28.1920  -25.0690   -7.2730 C   0  0  0  0  0  0  0  0  0  0  0  0
   22.9900  -21.3750  -13.7730 S   0  0  0  0  0  0  0  0  0  0  0  0
   22.0620  -21.7620  -12.3820 C   0  0  0  0  0  0  0  0  0  0  0  0
   20.8220  -21.1720  -12.2060 C   0  0  0  0  0  0  0  0  0  0  0  0
   20.0680  -21.4720  -11.0840 C   0  0  0  0  0  0  0  0  0  0  0  0
   20.5370  -22.3640  -10.1200 C   0  0  0  0  0  0  0  0  0  0  0  0
   21.7970  -22.9580  -10.3130 C   0  0  0  0  0  0  0  0  0  0  0  0
   22.5490  -22.6490  -11.4370 C   0  0  0  0  0  0  0  0  0  0  0  0
   19.7190  -22.5890   -9.0710 N   0  0  0  0  0  0  0  0  0  0  0  0
   20.1610  -22.4470   -7.8090 C   0  0  0  0  0  0  0  0  0  0  0  0
   21.2920  -22.0990   -7.4810 O   0  0  0  0  0  0  0  0  0  0  0  0
   19.1310  -22.7680   -6.7320 C   0  0  0  0  0  0  0  0  0  0  0  0
   18.6170  -21.6010   -5.8750 C   0  0  0  0  0  0  0  0  0  0  0  0
   17.7290  -22.2060   -6.9390 C   0  0  0  0  0  0  0  0  0  0  0  0
  1 10  1  0
  1  2  1  0
  1  6  2  0
  2  3  1  0
  3 14  1  0
  3  4  2  0
  4  5  2  0
  5  6  1  0
  5 21  1  0
  7  8  1  0
  7 13  1  0
  7 12  1  0
  8  9  1  0
  9 10  1  0
 10 11  1  0
 11 12  1  0
 14 15  1  0
 15 19  2  0
 15 16  1  0
 16 17  1  0
 17 18  2  0
 17 20  1  0
 18 19  1  0
 21 22  1  0
 22 27  2  0
 22 23  1  0
 23 24  2  0
 24 25  1  0
 25 26  2  0
 25 28  1  0
 26 27  1  0
 28 29  1  0
 29 30  2  0
 29 31  1  0
 31 32  1  0
 31 33  1  0
 32 33  1  0
M  END
>  <MODEL>  (1) 
       5

>  <COMPND>  (1) 
    UNNAMED

>  <AUTHOR>  (1) 
    GENERATED BY OPEN BABEL 2.4.90

>  <MASTER>  (1) 
        0    0    0    0    0    0    0    0   33    0   33    0

$$$$
