4af3_A_rec_4af3_vx6_lig_tt_min
     RDKit          3D

 33 37  0  0  0  0  0  0  0  0999 V2000
   23.1260  -21.8180  -12.7800 C   0  0  0  0  0  0  0  0  0  0  0  0
   21.8650  -21.2940  -13.0760 C   0  0  0  0  0  0  0  0  0  0  0  0
   20.8350  -21.4700  -12.1500 C   0  0  0  0  0  0  0  0  0  0  0  0
   21.0890  -22.1410  -11.0040 N   0  0  0  0  0  4  0  0  0  0  0  0
   22.3080  -22.6460  -10.7460 C   0  0  0  0  0  0  0  0  0  0  0  0
   23.2960  -22.4810  -11.6270 N   0  0  0  0  0  0  0  0  0  0  0  0
   26.7410  -21.4660  -14.9150 N   0  0  0  0  0  0  0  0  0  0  0  0
   25.4480  -21.0580  -15.5440 C   0  0  0  0  0  0  0  0  0  0  0  0
   24.5030  -20.5910  -14.4740 C   0  0  0  0  0  0  0  0  0  0  0  0
   24.2070  -21.7410  -13.5840 N   0  0  0  0  0  0  0  0  0  0  0  0
   25.1720  -22.8680  -13.5840 C   0  0  0  0  0  0  0  0  0  0  0  0
   26.5540  -22.3200  -13.7130 C   0  0  0  0  0  0  0  0  0  0  0  0
   27.6330  -20.3180  -14.5910 C   0  0  0  0  0  0  0  0  0  0  0  0
   19.6260  -20.9400  -12.4410 N   0  0  0  0  0  0  0  0  0  0  0  0
   18.5010  -21.1780  -11.7230 C   0  0  0  0  0  0  0  0  0  0  0  0
   18.0790  -22.2420  -11.0280 C   0  0  0  0  0  0  0  0  0  0  0  0
   16.9040  -21.8690  -10.5290 C   0  0  0  0  0  0  0  0  0  0  0  0
   16.6430  -20.6340  -10.9140 N   0  0  0  0  0  0  0  0  0  0  0  0
   17.5720  -20.2360  -11.6100 N   0  0  0  0  0  0  0  0  0  0  0  0
   15.9450  -22.6770   -9.6450 C   0  0  0  0  0  0  0  0  0  0  0  0
   22.6870  -23.5360   -9.2590 S   0  0  0  0  0  0  0  0  0  0  0  0
   21.2400  -23.3340   -8.3610 C   0  0  0  0  0  0  0  0  0  0  0  0
   21.0890  -22.2180   -7.5550 C   0  0  0  0  0  0  0  0  0  0  0  0
   19.9270  -22.0490   -6.8210 C   0  0  0  0  0  0  0  0  0  0  0  0
   18.8970  -22.9880   -6.8780 C   0  0  0  0  0  0  0  0  0  0  0  0
   19.0630  -24.1150   -7.7030 C   0  0  0  0  0  0  0  0  0  0  0  0
   20.2310  -24.2810   -8.4320 C   0  0  0  0  0  0  0  0  0  0  0  0
   17.8080  -22.7220   -6.1280 N   0  0  0  0  0  0  0  0  0  0  0  0
   17.0570  -23.7170   -5.6240 C   0  0  0  0  0  0  0  0  0  0  0  0
   17.2720  -24.9180   -5.7640 O   0  0  0  0  0  0  0  0  0  0  0  0
   15.8420  -23.2580   -4.8250 C   0  0  0  0  0  0  0  0  0  0  0  0
   14.6780  -22.6330   -5.6070 C   0  0  0  0  0  0  0  0  0  0  0  0
   14.5480  -24.0310   -5.0470 C   0  0  0  0  0  0  0  0  0  0  0  0
  1 10  1  0
  1  2  1  0
  1  6  2  0
  2  3  1  0
  3 14  1  0
  3  4  2  0
  4  5  2  0
  5  6  1  0
  5 21  1  0
  7  8  1  0
  7 13  1  0
  7 12  1  0
  8  9  1  0
  9 10  1  0
 10 11  1  0
 11 12  1  0
 14 15  1  0
 15 19  2  0
 15 16  1  0
 16 17  1  0
 17 18  2  0
 17 20  1  0
 18 19  1  0
 21 22  1  0
 22 27  2  0
 22 23  1  0
 23 24  2  0
 24 25  1  0
 25 26  2  0
 25 28  1  0
 26 27  1  0
 28 29  1  0
 29 30  2  0
 29 31  1  0
 31 32  1  0
 31 33  1  0
 32 33  1  0
M  END
>  <COMPND>  (1) 
    UNNAMED

>  <AUTHOR>  (1) 
    GENERATED BY OPEN BABEL 2.4.90

>  <MASTER>  (1) 
        0    0    0    0    0    0    0    0   33    0   33    0

$$$$
