4af3_A_rec_4af3_vx6_lig_tt_docked
     RDKit          3D

 33 37  0  0  0  0  0  0  0  0999 V2000
   26.6920  -21.2650  -12.4960 C   0  0  0  0  0  0  0  0  0  0  0  0
   27.0310  -22.6090  -12.3190 C   0  0  0  0  0  0  0  0  0  0  0  0
   26.0610  -23.5810  -12.5670 C   0  0  0  0  0  0  0  0  0  0  0  0
   24.8280  -23.1920  -12.9650 N   0  0  0  0  0  4  0  0  0  0  0  0
   24.5220  -21.8920  -13.1180 C   0  0  0  0  0  0  0  0  0  0  0  0
   25.4460  -20.9590  -12.8830 N   0  0  0  0  0  0  0  0  0  0  0  0
   29.0020  -17.7650  -12.1000 N   0  0  0  0  0  0  0  0  0  0  0  0
   29.6570  -19.1080  -12.0930 C   0  0  0  0  0  0  0  0  0  0  0  0
   28.8440  -20.0580  -12.9250 C   0  0  0  0  0  0  0  0  0  0  0  0
   27.5190  -20.2210  -12.2780 N   0  0  0  0  0  0  0  0  0  0  0  0
   27.0830  -19.1580  -11.3390 C   0  0  0  0  0  0  0  0  0  0  0  0
   27.5360  -17.8360  -11.8640 C   0  0  0  0  0  0  0  0  0  0  0  0
   29.2830  -16.9720  -13.3290 C   0  0  0  0  0  0  0  0  0  0  0  0
   26.4090  -24.8770  -12.4110 N   0  0  0  0  0  0  0  0  0  0  0  0
   26.6340  -25.7310  -13.4400 C   0  0  0  0  0  0  0  0  0  0  0  0
   26.4590  -27.0520  -13.5750 C   0  0  0  0  0  0  0  0  0  0  0  0
   26.8450  -27.3140  -14.8200 C   0  0  0  0  0  0  0  0  0  0  0  0
   27.2330  -26.1920  -15.3970 N   0  0  0  0  0  0  0  0  0  0  0  0
   27.1120  -25.2750  -14.5920 N   0  0  0  0  0  0  0  0  0  0  0  0
   26.8700  -28.6660  -15.5460 C   0  0  0  0  0  0  0  0  0  0  0  0
   22.9190  -21.3340  -13.6350 S   0  0  0  0  0  0  0  0  0  0  0  0
   21.9570  -21.7520  -12.2780 C   0  0  0  0  0  0  0  0  0  0  0  0
   20.7160  -21.1600  -12.1150 C   0  0  0  0  0  0  0  0  0  0  0  0
   19.9340  -21.4860  -11.0190 C   0  0  0  0  0  0  0  0  0  0  0  0
   20.3760  -22.4050  -10.0680 C   0  0  0  0  0  0  0  0  0  0  0  0
   21.6370  -23.0010  -10.2480 C   0  0  0  0  0  0  0  0  0  0  0  0
   22.4170  -22.6670  -11.3450 C   0  0  0  0  0  0  0  0  0  0  0  0
   19.5330  -22.6530   -9.0450 N   0  0  0  0  0  0  0  0  0  0  0  0
   19.9270  -22.4870   -7.7700 C   0  0  0  0  0  0  0  0  0  0  0  0
   21.0330  -22.0950   -7.4080 O   0  0  0  0  0  0  0  0  0  0  0  0
   18.8740  -22.8380   -6.7250 C   0  0  0  0  0  0  0  0  0  0  0  0
   18.4240  -21.7200   -5.7720 C   0  0  0  0  0  0  0  0  0  0  0  0
   17.5080  -22.1800   -6.8850 C   0  0  0  0  0  0  0  0  0  0  0  0
  1 10  1  0
  1  2  1  0
  1  6  2  0
  2  3  1  0
  3 14  1  0
  3  4  2  0
  4  5  2  0
  5  6  1  0
  5 21  1  0
  7  8  1  0
  7 13  1  0
  7 12  1  0
  8  9  1  0
  9 10  1  0
 10 11  1  0
 11 12  1  0
 14 15  1  0
 15 19  2  0
 15 16  1  0
 16 17  1  0
 17 18  2  0
 17 20  1  0
 18 19  1  0
 21 22  1  0
 22 27  2  0
 22 23  1  0
 23 24  2  0
 24 25  1  0
 25 26  2  0
 25 28  1  0
 26 27  1  0
 28 29  1  0
 29 30  2  0
 29 31  1  0
 31 32  1  0
 31 33  1  0
 32 33  1  0
M  END
>  <MODEL>  (1) 
       4

>  <COMPND>  (1) 
    UNNAMED

>  <AUTHOR>  (1) 
    GENERATED BY OPEN BABEL 2.4.90

>  <MASTER>  (1) 
        0    0    0    0    0    0    0    0   33    0   33    0

$$$$
