4af3_A_rec_4af3_vx6_lig_tt_docked
     RDKit          3D

 33 37  0  0  0  0  0  0  0  0999 V2000
   23.3160  -21.9780  -12.5510 C   0  0  0  0  0  0  0  0  0  0  0  0
   22.0940  -21.4220  -12.9370 C   0  0  0  0  0  0  0  0  0  0  0  0
   21.0030  -21.5400  -12.0740 C   0  0  0  0  0  0  0  0  0  0  0  0
   21.1630  -22.1890  -10.8980 N   0  0  0  0  0  4  0  0  0  0  0  0
   22.3460  -22.7270  -10.5530 C   0  0  0  0  0  0  0  0  0  0  0  0
   23.3920  -22.6160  -11.3740 N   0  0  0  0  0  0  0  0  0  0  0  0
   27.0660  -21.7980  -14.4620 N   0  0  0  0  0  0  0  0  0  0  0  0
   25.8290  -21.3660  -15.1810 C   0  0  0  0  0  0  0  0  0  0  0  0
   24.8360  -20.8410  -14.1830 C   0  0  0  0  0  0  0  0  0  0  0  0
   24.4470  -21.9570  -13.2870 N   0  0  0  0  0  0  0  0  0  0  0  0
   25.3710  -23.1140  -13.1980 C   0  0  0  0  0  0  0  0  0  0  0  0
   26.7760  -22.6140  -13.2540 C   0  0  0  0  0  0  0  0  0  0  0  0
   27.9740  -20.6710  -14.1110 C   0  0  0  0  0  0  0  0  0  0  0  0
   19.8340  -20.9790  -12.4530 N   0  0  0  0  0  0  0  0  0  0  0  0
   18.6640  -21.1400  -11.7860 C   0  0  0  0  0  0  0  0  0  0  0  0
   18.1370  -22.1760  -11.1200 C   0  0  0  0  0  0  0  0  0  0  0  0
   16.9710  -21.7230  -10.6680 C   0  0  0  0  0  0  0  0  0  0  0  0
   16.8160  -20.4700  -11.0530 N   0  0  0  0  0  0  0  0  0  0  0  0
   17.8000  -20.1360  -11.7040 N   0  0  0  0  0  0  0  0  0  0  0  0
   15.9190  -22.4660   -9.8340 C   0  0  0  0  0  0  0  0  0  0  0  0
   22.6020  -23.5890   -9.0240 S   0  0  0  0  0  0  0  0  0  0  0  0
   21.0730  -23.4080   -8.2680 C   0  0  0  0  0  0  0  0  0  0  0  0
   20.0980  -24.3710   -8.4650 C   0  0  0  0  0  0  0  0  0  0  0  0
   18.8580  -24.2300   -7.8640 C   0  0  0  0  0  0  0  0  0  0  0  0
   18.5690  -23.1280   -7.0590 C   0  0  0  0  0  0  0  0  0  0  0  0
   19.5700  -22.1590   -6.8660 C   0  0  0  0  0  0  0  0  0  0  0  0
   20.8090  -22.3040   -7.4740 C   0  0  0  0  0  0  0  0  0  0  0  0
   17.3340  -23.0950   -6.5190 N   0  0  0  0  0  0  0  0  0  0  0  0
   17.0550  -23.7710   -5.3910 C   0  0  0  0  0  0  0  0  0  0  0  0
   17.8510  -24.4470   -4.7460 O   0  0  0  0  0  0  0  0  0  0  0  0
   15.6080  -23.6610   -4.9220 C   0  0  0  0  0  0  0  0  0  0  0  0
   15.2070  -22.3880   -4.1620 C   0  0  0  0  0  0  0  0  0  0  0  0
   14.7540  -22.5900   -5.5900 C   0  0  0  0  0  0  0  0  0  0  0  0
  1 10  1  0
  1  2  1  0
  1  6  2  0
  2  3  1  0
  3 14  1  0
  3  4  2  0
  4  5  2  0
  5  6  1  0
  5 21  1  0
  7  8  1  0
  7 13  1  0
  7 12  1  0
  8  9  1  0
  9 10  1  0
 10 11  1  0
 11 12  1  0
 14 15  1  0
 15 19  2  0
 15 16  1  0
 16 17  1  0
 17 18  2  0
 17 20  1  0
 18 19  1  0
 21 22  1  0
 22 27  2  0
 22 23  1  0
 23 24  2  0
 24 25  1  0
 25 26  2  0
 25 28  1  0
 26 27  1  0
 28 29  1  0
 29 30  2  0
 29 31  1  0
 31 32  1  0
 31 33  1  0
 32 33  1  0
M  END
>  <MODEL>  (1) 
       1

>  <COMPND>  (1) 
    UNNAMED

>  <AUTHOR>  (1) 
    GENERATED BY OPEN BABEL 2.4.90

>  <MASTER>  (1) 
        0    0    0    0    0    0    0    0   33    0   33    0

$$$$
