4af3_A_rec_4af3_vx6_lig_tt_docked
     RDKit          3D

 33 37  0  0  0  0  0  0  0  0999 V2000
   24.9850  -22.9860  -15.5530 C   0  0  0  0  0  0  0  0  0  0  0  0
   25.2230  -24.3570  -15.4330 C   0  0  0  0  0  0  0  0  0  0  0  0
   25.3050  -24.9120  -14.1550 C   0  0  0  0  0  0  0  0  0  0  0  0
   25.1560  -24.1070  -13.0780 N   0  0  0  0  0  4  0  0  0  0  0  0
   24.9390  -22.7870  -13.2180 C   0  0  0  0  0  0  0  0  0  0  0  0
   24.8590  -22.2520  -14.4380 N   0  0  0  0  0  0  0  0  0  0  0  0
   25.1050  -21.0930  -19.3140 N   0  0  0  0  0  0  0  0  0  0  0  0
   24.5850  -20.3640  -18.1170 C   0  0  0  0  0  0  0  0  0  0  0  0
   25.2700  -20.8860  -16.8860 C   0  0  0  0  0  0  0  0  0  0  0  0
   24.8980  -22.3120  -16.7190 N   0  0  0  0  0  0  0  0  0  0  0  0
   24.4080  -23.0340  -17.9190 C   0  0  0  0  0  0  0  0  0  0  0  0
   25.1740  -22.5640  -19.1110 C   0  0  0  0  0  0  0  0  0  0  0  0
   26.4180  -20.5830  -19.7960 C   0  0  0  0  0  0  0  0  0  0  0  0
   25.5150  -26.2430  -14.0550 N   0  0  0  0  0  0  0  0  0  0  0  0
   26.6230  -26.8730  -14.5200 C   0  0  0  0  0  0  0  0  0  0  0  0
   27.8790  -26.9530  -14.0600 C   0  0  0  0  0  0  0  0  0  0  0  0
   28.5060  -27.7270  -14.9420 C   0  0  0  0  0  0  0  0  0  0  0  0
   27.6550  -28.0880  -15.8840 N   0  0  0  0  0  0  0  0  0  0  0  0
   26.5630  -27.5880  -15.6370 N   0  0  0  0  0  0  0  0  0  0  0  0
   29.9750  -28.1730  -14.9420 C   0  0  0  0  0  0  0  0  0  0  0  0
   24.7400  -21.6920  -11.8370 S   0  0  0  0  0  0  0  0  0  0  0  0
   23.2270  -22.2020  -11.2110 C   0  0  0  0  0  0  0  0  0  0  0  0
   22.0590  -21.7440  -11.7970 C   0  0  0  0  0  0  0  0  0  0  0  0
   20.8320  -22.1450  -11.2940 C   0  0  0  0  0  0  0  0  0  0  0  0
   20.7490  -23.0070  -10.2010 C   0  0  0  0  0  0  0  0  0  0  0  0
   21.9430  -23.4660   -9.6180 C   0  0  0  0  0  0  0  0  0  0  0  0
   23.1690  -23.0580  -10.1230 C   0  0  0  0  0  0  0  0  0  0  0  0
   19.5050  -23.3370   -9.7980 N   0  0  0  0  0  0  0  0  0  0  0  0
   19.0210  -22.9000   -8.6220 C   0  0  0  0  0  0  0  0  0  0  0  0
   19.6150  -22.1750   -7.8290 O   0  0  0  0  0  0  0  0  0  0  0  0
   17.6140  -23.3830   -8.2910 C   0  0  0  0  0  0  0  0  0  0  0  0
   16.5270  -22.3150   -8.0970 C   0  0  0  0  0  0  0  0  0  0  0  0
   16.5460  -23.1550   -9.3550 C   0  0  0  0  0  0  0  0  0  0  0  0
  1 10  1  0
  1  2  1  0
  1  6  2  0
  2  3  1  0
  3 14  1  0
  3  4  2  0
  4  5  2  0
  5  6  1  0
  5 21  1  0
  7  8  1  0
  7 13  1  0
  7 12  1  0
  8  9  1  0
  9 10  1  0
 10 11  1  0
 11 12  1  0
 14 15  1  0
 15 19  2  0
 15 16  1  0
 16 17  1  0
 17 18  2  0
 17 20  1  0
 18 19  1  0
 21 22  1  0
 22 27  2  0
 22 23  1  0
 23 24  2  0
 24 25  1  0
 25 26  2  0
 25 28  1  0
 26 27  1  0
 28 29  1  0
 29 30  2  0
 29 31  1  0
 31 32  1  0
 31 33  1  0
 32 33  1  0
M  END
>  <MODEL>  (1) 
       2

>  <COMPND>  (1) 
    UNNAMED

>  <AUTHOR>  (1) 
    GENERATED BY OPEN BABEL 2.4.90

>  <MASTER>  (1) 
        0    0    0    0    0    0    0    0   33    0   33    0

$$$$
