4af3_A_rec_4af3_vx6_lig_tt_docked
     RDKit          3D

 33 37  0  0  0  0  0  0  0  0999 V2000
   26.8760  -22.2920  -12.9520 C   0  0  0  0  0  0  0  0  0  0  0  0
   27.3980  -21.1960  -12.2610 C   0  0  0  0  0  0  0  0  0  0  0  0
   26.5910  -20.0700  -12.0860 C   0  0  0  0  0  0  0  0  0  0  0  0
   25.3370  -20.0760  -12.5920 N   0  0  0  0  0  4  0  0  0  0  0  0
   24.8600  -21.1380  -13.2640 C   0  0  0  0  0  0  0  0  0  0  0  0
   25.6270  -22.2170  -13.4330 N   0  0  0  0  0  0  0  0  0  0  0  0
   28.5600  -26.0290  -13.9240 N   0  0  0  0  0  0  0  0  0  0  0  0
   29.0190  -25.2850  -12.7110 C   0  0  0  0  0  0  0  0  0  0  0  0
   27.8850  -24.4520  -12.1850 C   0  0  0  0  0  0  0  0  0  0  0  0
   27.5430  -23.4360  -13.2110 N   0  0  0  0  0  0  0  0  0  0  0  0
   27.9600  -23.7110  -14.6080 C   0  0  0  0  0  0  0  0  0  0  0  0
   27.8090  -25.1720  -14.8780 C   0  0  0  0  0  0  0  0  0  0  0  0
   27.7720  -27.2520  -13.6080 C   0  0  0  0  0  0  0  0  0  0  0  0
   27.1030  -19.0260  -11.3970 N   0  0  0  0  0  0  0  0  0  0  0  0
   27.7660  -17.9920  -11.9710 C   0  0  0  0  0  0  0  0  0  0  0  0
   28.1560  -17.7530  -13.2300 C   0  0  0  0  0  0  0  0  0  0  0  0
   28.7480  -16.5640  -13.1750 C   0  0  0  0  0  0  0  0  0  0  0  0
   28.7110  -16.1190  -11.9330 N   0  0  0  0  0  0  0  0  0  0  0  0
   28.1420  -16.9520  -11.2360 N   0  0  0  0  0  0  0  0  0  0  0  0
   29.3970  -15.7690  -14.3170 C   0  0  0  0  0  0  0  0  0  0  0  0
   23.2240  -21.1900  -13.9480 S   0  0  0  0  0  0  0  0  0  0  0  0
   22.3050  -21.7160  -12.5970 C   0  0  0  0  0  0  0  0  0  0  0  0
   21.0370  -21.1990  -12.3960 C   0  0  0  0  0  0  0  0  0  0  0  0
   20.2890  -21.6130  -11.3050 C   0  0  0  0  0  0  0  0  0  0  0  0
   20.7940  -22.5450  -10.3990 C   0  0  0  0  0  0  0  0  0  0  0  0
   22.0830  -23.0630  -10.6180 C   0  0  0  0  0  0  0  0  0  0  0  0
   22.8280  -22.6420  -11.7100 C   0  0  0  0  0  0  0  0  0  0  0  0
   19.9800  -22.8810   -9.3770 N   0  0  0  0  0  0  0  0  0  0  0  0
   20.3350  -22.6370   -8.1030 C   0  0  0  0  0  0  0  0  0  0  0  0
   21.3760  -22.0950   -7.7410 O   0  0  0  0  0  0  0  0  0  0  0  0
   19.3260  -23.1020   -7.0590 C   0  0  0  0  0  0  0  0  0  0  0  0
   18.1680  -22.1520   -6.7230 C   0  0  0  0  0  0  0  0  0  0  0  0
   17.9140  -23.3890   -7.5550 C   0  0  0  0  0  0  0  0  0  0  0  0
  1 10  1  0
  1  2  1  0
  1  6  2  0
  2  3  1  0
  3 14  1  0
  3  4  2  0
  4  5  2  0
  5  6  1  0
  5 21  1  0
  7  8  1  0
  7 13  1  0
  7 12  1  0
  8  9  1  0
  9 10  1  0
 10 11  1  0
 11 12  1  0
 14 15  1  0
 15 19  2  0
 15 16  1  0
 16 17  1  0
 17 18  2  0
 17 20  1  0
 18 19  1  0
 21 22  1  0
 22 27  2  0
 22 23  1  0
 23 24  2  0
 24 25  1  0
 25 26  2  0
 25 28  1  0
 26 27  1  0
 28 29  1  0
 29 30  2  0
 29 31  1  0
 31 32  1  0
 31 33  1  0
 32 33  1  0
M  END
>  <MODEL>  (1) 
       8

>  <COMPND>  (1) 
    UNNAMED

>  <AUTHOR>  (1) 
    GENERATED BY OPEN BABEL 2.4.90

>  <MASTER>  (1) 
        0    0    0    0    0    0    0    0   33    0   33    0

$$$$
