4af3_A_rec_4af3_vx6_lig_tt_docked
     RDKit          3D

 33 37  0  0  0  0  0  0  0  0999 V2000
   25.3980  -21.6780  -14.1120 C   0  0  0  0  0  0  0  0  0  0  0  0
   25.4070  -23.0290  -14.4650 C   0  0  0  0  0  0  0  0  0  0  0  0
   25.0870  -23.9770  -13.4910 C   0  0  0  0  0  0  0  0  0  0  0  0
   24.7850  -23.5580  -12.2410 N   0  0  0  0  0  4  0  0  0  0  0  0
   24.7950  -22.2520  -11.9210 C   0  0  0  0  0  0  0  0  0  0  0  0
   25.0980  -21.3420  -12.8490 N   0  0  0  0  0  0  0  0  0  0  0  0
   26.6270  -18.7830  -16.9140 N   0  0  0  0  0  0  0  0  0  0  0  0
   26.3320  -18.3910  -15.5030 C   0  0  0  0  0  0  0  0  0  0  0  0
   26.6280  -19.5510  -14.5960 C   0  0  0  0  0  0  0  0  0  0  0  0
   25.7010  -20.6570  -14.9400 N   0  0  0  0  0  0  0  0  0  0  0  0
   25.0800  -20.6300  -16.2870 C   0  0  0  0  0  0  0  0  0  0  0  0
   26.0800  -20.1180  -17.2700 C   0  0  0  0  0  0  0  0  0  0  0  0
   28.0740  -18.7160  -17.2590 C   0  0  0  0  0  0  0  0  0  0  0  0
   25.0800  -25.2790  -13.8530 N   0  0  0  0  0  0  0  0  0  0  0  0
   26.1980  -25.9990  -14.1170 C   0  0  0  0  0  0  0  0  0  0  0  0
   27.2710  -26.3080  -13.3770 C   0  0  0  0  0  0  0  0  0  0  0  0
   28.0250  -27.0530  -14.1810 C   0  0  0  0  0  0  0  0  0  0  0  0
   27.4210  -27.1790  -15.3470 N   0  0  0  0  0  0  0  0  0  0  0  0
   26.3610  -26.5630  -15.3080 N   0  0  0  0  0  0  0  0  0  0  0  0
   29.3860  -27.6980  -13.8820 C   0  0  0  0  0  0  0  0  0  0  0  0
   24.4090  -21.6550  -10.2960 S   0  0  0  0  0  0  0  0  0  0  0  0
   22.7770  -22.1580  -10.1260 C   0  0  0  0  0  0  0  0  0  0  0  0
   22.4510  -23.0910   -9.1560 C   0  0  0  0  0  0  0  0  0  0  0  0
   21.1370  -23.5080   -9.0150 C   0  0  0  0  0  0  0  0  0  0  0  0
   20.1300  -23.0030   -9.8360 C   0  0  0  0  0  0  0  0  0  0  0  0
   20.4760  -22.0540  -10.8150 C   0  0  0  0  0  0  0  0  0  0  0  0
   21.7940  -21.6440  -10.9540 C   0  0  0  0  0  0  0  0  0  0  0  0
   18.8860  -23.4730   -9.6090 N   0  0  0  0  0  0  0  0  0  0  0  0
   18.1300  -22.9720   -8.6160 C   0  0  0  0  0  0  0  0  0  0  0  0
   18.4570  -22.0680   -7.8530 O   0  0  0  0  0  0  0  0  0  0  0  0
   16.7620  -23.6270   -8.4630 C   0  0  0  0  0  0  0  0  0  0  0  0
   16.5450  -24.5350   -7.2430 C   0  0  0  0  0  0  0  0  0  0  0  0
   15.9100  -23.1630   -7.2870 C   0  0  0  0  0  0  0  0  0  0  0  0
  1 10  1  0
  1  2  1  0
  1  6  2  0
  2  3  1  0
  3 14  1  0
  3  4  2  0
  4  5  2  0
  5  6  1  0
  5 21  1  0
  7  8  1  0
  7 13  1  0
  7 12  1  0
  8  9  1  0
  9 10  1  0
 10 11  1  0
 11 12  1  0
 14 15  1  0
 15 19  2  0
 15 16  1  0
 16 17  1  0
 17 18  2  0
 17 20  1  0
 18 19  1  0
 21 22  1  0
 22 27  2  0
 22 23  1  0
 23 24  2  0
 24 25  1  0
 25 26  2  0
 25 28  1  0
 26 27  1  0
 28 29  1  0
 29 30  2  0
 29 31  1  0
 31 32  1  0
 31 33  1  0
 32 33  1  0
M  END
>  <MODEL>  (1) 
       6

>  <COMPND>  (1) 
    UNNAMED

>  <AUTHOR>  (1) 
    GENERATED BY OPEN BABEL 2.4.90

>  <MASTER>  (1) 
        0    0    0    0    0    0    0    0   33    0   33    0

$$$$
