4af3_A_rec_4af3_vx6_lig_tt_docked
     RDKit          3D

 33 37  0  0  0  0  0  0  0  0999 V2000
   25.7200  -24.1230  -13.4970 C   0  0  0  0  0  0  0  0  0  0  0  0
   25.2540  -23.5330  -14.6740 C   0  0  0  0  0  0  0  0  0  0  0  0
   24.5050  -22.3580  -14.5820 C   0  0  0  0  0  0  0  0  0  0  0  0
   24.2520  -21.8340  -13.3610 N   0  0  0  0  0  4  0  0  0  0  0  0
   24.7020  -22.4270  -12.2410 C   0  0  0  0  0  0  0  0  0  0  0  0
   25.4190  -23.5490  -12.3230 N   0  0  0  0  0  0  0  0  0  0  0  0
   28.2730  -27.4730  -13.5560 N   0  0  0  0  0  0  0  0  0  0  0  0
   26.7900  -27.6530  -13.5530 C   0  0  0  0  0  0  0  0  0  0  0  0
   26.1480  -26.4770  -14.2330 C   0  0  0  0  0  0  0  0  0  0  0  0
   26.4380  -25.2640  -13.4310 N   0  0  0  0  0  0  0  0  0  0  0  0
   27.5970  -25.3180  -12.5070 C   0  0  0  0  0  0  0  0  0  0  0  0
   28.6900  -26.1050  -13.1500 C   0  0  0  0  0  0  0  0  0  0  0  0
   28.9140  -27.8390  -14.8490 C   0  0  0  0  0  0  0  0  0  0  0  0
   24.0800  -21.7880  -15.7310 N   0  0  0  0  0  0  0  0  0  0  0  0
   24.5520  -22.1140  -16.9600 C   0  0  0  0  0  0  0  0  0  0  0  0
   25.6430  -21.7360  -17.6400 C   0  0  0  0  0  0  0  0  0  0  0  0
   25.5690  -22.4070  -18.7850 C   0  0  0  0  0  0  0  0  0  0  0  0
   24.4780  -23.1500  -18.7820 N   0  0  0  0  0  0  0  0  0  0  0  0
   23.8890  -22.9750  -17.7210 N   0  0  0  0  0  0  0  0  0  0  0  0
   26.5450  -22.3790  -19.9700 C   0  0  0  0  0  0  0  0  0  0  0  0
   24.3930  -21.7790  -10.6190 S   0  0  0  0  0  0  0  0  0  0  0  0
   22.7650  -22.2580  -10.3630 C   0  0  0  0  0  0  0  0  0  0  0  0
   21.7420  -21.5320  -10.9470 C   0  0  0  0  0  0  0  0  0  0  0  0
   20.4240  -21.9070  -10.7410 C   0  0  0  0  0  0  0  0  0  0  0  0
   20.1060  -23.0110   -9.9510 C   0  0  0  0  0  0  0  0  0  0  0  0
   21.1560  -23.7410   -9.3660 C   0  0  0  0  0  0  0  0  0  0  0  0
   22.4730  -23.3580   -9.5720 C   0  0  0  0  0  0  0  0  0  0  0  0
   18.7930  -23.2900   -9.8220 N   0  0  0  0  0  0  0  0  0  0  0  0
   18.1000  -22.8710   -8.7480 C   0  0  0  0  0  0  0  0  0  0  0  0
   18.5520  -22.2080   -7.8190 O   0  0  0  0  0  0  0  0  0  0  0  0
   16.6350  -23.2930   -8.7300 C   0  0  0  0  0  0  0  0  0  0  0  0
   16.1880  -24.2500   -7.6150 C   0  0  0  0  0  0  0  0  0  0  0  0
   15.7940  -22.7910   -7.5620 C   0  0  0  0  0  0  0  0  0  0  0  0
  1 10  1  0
  1  2  1  0
  1  6  2  0
  2  3  1  0
  3 14  1  0
  3  4  2  0
  4  5  2  0
  5  6  1  0
  5 21  1  0
  7  8  1  0
  7 13  1  0
  7 12  1  0
  8  9  1  0
  9 10  1  0
 10 11  1  0
 11 12  1  0
 14 15  1  0
 15 19  2  0
 15 16  1  0
 16 17  1  0
 17 18  2  0
 17 20  1  0
 18 19  1  0
 21 22  1  0
 22 27  2  0
 22 23  1  0
 23 24  2  0
 24 25  1  0
 25 26  2  0
 25 28  1  0
 26 27  1  0
 28 29  1  0
 29 30  2  0
 29 31  1  0
 31 32  1  0
 31 33  1  0
 32 33  1  0
M  END
>  <MODEL>  (1) 
       3

>  <COMPND>  (1) 
    UNNAMED

>  <AUTHOR>  (1) 
    GENERATED BY OPEN BABEL 2.4.90

>  <MASTER>  (1) 
        0    0    0    0    0    0    0    0   33    0   33    0

$$$$
